data/raw/small_cases/case2_tap_shunt_sample.m
%% 2-bus validation case with line charging and off-nominal tap ratio

%% bus data
% bus_i type Pd Qd Gs Bs area Vm Va baseKV zone Vmax Vmin
mpc.bus = [
	1	3	0	0	0	0	1	1.00	0	0	1	1.06	0.94;
	2	1	0	0	0	0	1	1.00	0	0	1	1.06	0.94;
];

%% generator data
% bus Pg Qg Qmax Qmin Vg mBase status Pmax Pmin Pc1 Pc2 Qc1min Qc1max Qc2min Qc2max ramp_agc ramp_10 ramp_30 ramp_q apf
mpc.gen = [
	1	0	0	10	-10	1.00	100	1	10	0	0	0	0	0	0	0	0	0	0	0	0;
];

%% branch data
% fbus tbus r x b rateA rateB rateC ratio angle status angmin angmax
mpc.branch = [
	1	2	0.1	0.2	0.04	0	0	0	1.1	0	1	-360	360;
];
